/*--------------------------------*- C++ -*----------------------------------*\
| =========                 |                                                 |
| \\      /  F ield         | OpenFOAM: The Open Source CFD Toolbox           |
|  \\    /   O peration     | Version:  v2012                                 |
|   \\  /    A nd           | Website:  www.openfoam.com                      |
|    \\/     M anipulation  |                                                 |
\*---------------------------------------------------------------------------*/
FoamFile
{
    version     2.0;
    format      ascii;
    class       dictionary;
    location    "system";
    object      fvSchemes;
}
// * * * * * * * * * * * * * * * * * * * * * * * * * * * * * * * * * * * * * //

ddtSchemes
{
    default         steadyState;
}

gradSchemes
{
    default         cellLimited Gauss linear 1;
    //default         Gauss linear;
}

divSchemes
{
    default         Gauss upwind phi;
    div(phi,U)     bounded Gauss linearUpwind grad(U);
    div(phi,nuTilda) bounded Gauss linearUpwind grad(nuTilda);
    div((nuEff*dev2(T(grad(U))))) Gauss linear;
    
    /*
    default                 Gauss linear;
    div(phi,U)              bounded Gauss linearUpwind grad(U);
    div(phi,nuTilda)        bounded Gauss linearUpwind grad(nuTilda);
    */
}

laplacianSchemes
{
    default         Gauss linear limited 1;
    //default             Gauss linear corrected;
}

interpolationSchemes
{
    default         linear;
}

snGradSchemes
{
    default         limited 1;
    //default             corrected;
}

wallDist
{
    method meshWave;
}


// ************************************************************************* //
